Codigos/Simulacoes/57/06 - EE/ieee57_6_0600_EE.txt
================================================================================= 
=== UFF - Doutorado em Computação - Aplicaçoes em Sistemas de Potencia        === 
=== ESTIMADOR DE ESTADO MÍNIMOS QUADRADOS PONDERADOS INCLUINDO MEDIDAS DE PMU === 
=== Desenvolvido por: Rui Menezes de Moraes - 2009                            === 
================================================================================= 
Arquivo de medidores:          F:\Documents\Uff\Artigos\SimSEP\VERSAO WELDAN V2\Codigos\Med\ieee57_6_0600.med
Arquivo do sistema:            F:\Documents\Uff\Artigos\SimSEP\VERSAO WELDAN V2\Codigos\Carga\ieee57_6_0600.txt
Tolerância entre iteraçoes:     1.00e-04
Limite de iteraçoes:           100

--- DADOS DA REDE --------------------------------------------------------------- 
Data do caso:                  08/25/93
Origem:                        UW ARCHIVE          
MVA base:                      100
Ano:                           1961
Estação:                       W
Identificação:                 IEEE 57 Bus Test Case
Número de barras:              57 
Número de ramos:               80 
Referência na barra:           1

--- TELEMEDIDAS ------------------------------------------------------------------
    Tipo 1 = Fluxo de potencia ativa        Tipo  6 = Módulo da tensão            
    Tipo 2 = Injeção de potencia ativa      Tipo  7 = Corrente de ramo (real)     
    Tipo 3 = Ângulo de fase da tensão       Tipo  8 = Corrente de ramo (imag)     
    Tipo 4 = Fluxo de potencia reativa      Tipo  9 = Injeção de corrente (real)  
    Tipo 5 = Injeção de potencia reativa    Tipo 10 = Injeção de corrente (imag)  
----------------------------------------------------------------------------------
   N    D    P TP  PN ST   Exa   FS       DP      V_Ref      V_Med          E(%) 
----------------------------------------------------------------------------------
   1    0    1  6   0  0 0.015 01.1  0.00520   +1.04000   +1.05115     +1.072115 
   2    0    2  6   0  0 0.015 01.1  0.00510   +1.01945   +1.03450     +1.476286 
   3    0    3  6   0  0 0.015 01.1  0.00517   +1.03474   +1.04279     +0.777973 
   4    0    4  6   0  0 0.015 01.1  0.00512   +1.02329   +1.01242     -1.062260 
   5    0    5  6   0  0 0.015 01.1  0.00502   +1.00474   +0.99951     -0.520533 
   6    0    6  6   0  0 0.015 01.1  0.00500   +1.00001   +0.98588     -1.412986 
   7    0    7  6   0  0 0.015 01.1  0.00499   +0.99757   +1.00339     +0.583418 
   8    0    8  6   0  0 0.015 01.1  0.00502   +1.00500   +1.01883     +1.376119 
   9    0    9  6   0  0 0.015 01.1  0.00498   +0.99687   +1.00372     +0.687151 
  10    0   10  6   0  0 0.015 01.1  0.00498   +0.99542   +1.00249     +0.710253 
  11    0   11  6   0  0 0.015 01.1  0.00497   +0.99377   +0.98407     -0.976081 
  12    0   12  6   0  0 0.015 01.1  0.00507   +1.01500   +1.01060     -0.433498 
  13    0   13  6   0  0 0.015 01.1  0.00498   +0.99705   +0.99929     +0.224663 
  14    0   14  6   0  0 0.015 01.1  0.00497   +0.99357   +0.99238     -0.119770 
  15    0   15  6   0  0 0.015 01.1  0.00506   +1.01216   +1.02229     +1.000830 
  16    0   16  6   0  0 0.015 01.1  0.00509   +1.01847   +1.02811     +0.946518 
  17    0   17  6   0  0 0.015 01.1  0.00512   +1.02403   +1.01862     -0.528305 
  18    0   18  6   0  0 0.015 01.1  0.00526   +1.05294   +1.05173     -0.114916 
  19    0   19  6   0  0 0.015 01.1  0.00508   +1.01550   +1.02080     +0.521910 
  20    0   20  6   0  0 0.015 01.1  0.00501   +1.00238   +1.00524     +0.285321 
  21    0   21  6   0  0 0.015 01.1  0.00524   +1.04895   +1.03744     -1.097288 
  22    0   22  6   0  0 0.015 01.1  0.00524   +1.04791   +1.03280     -1.441918 
  23    0   23  6   0  0 0.015 01.1  0.00523   +1.04689   +1.03511     -1.125238 
  24    0   24  6   0  0 0.015 01.1  0.00520   +1.04071   +1.03207     -0.830202 
  25    0   25  6   0  0 0.015 01.1  0.00520   +1.03964   +1.03805     -0.152938 
  26    0   26  6   0  0 0.015 01.1  0.00498   +0.99707   +0.99810     +0.103303 
  27    0   27  6   0  0 0.015 01.1  0.00505   +1.00971   +1.02457     +1.471710 
  28    0   28  6   0  0 0.015 01.1  0.00510   +1.01957   +1.02621     +0.651255 
  29    0   29  6   0  0 0.015 01.1  0.00515   +1.02894   +1.04376     +1.440317 
  30    0   30  6   0  0 0.015 01.1  0.00512   +1.02452   +1.01080     -1.339164 
  31    0   31  6   0  0 0.015 01.1  0.00502   +1.00349   +1.00761     +0.410567 
  32    0   32  6   0  0 0.015 01.1  0.00506   +1.01182   +1.02579     +1.380680 
  33    0   33  6   0  0 0.015 01.1  0.00505   +1.01012   +1.00315     -0.690017 
  34    0   34  6   0  0 0.015 01.1  0.00504   +1.00872   +1.02232     +1.348243 
  35    0   35  6   0  0 0.015 01.1  0.00507   +1.01358   +1.02581     +1.206614 
  36    0   36  6   0  0 0.015 01.1  0.00510   +1.02048   +1.01113     -0.916235 
  37    0   37  6   0  0 0.015 01.1  0.00514   +1.02751   +1.03472     +0.701696 
  38    0   38  6   0  0 0.015 01.1  0.00525   +1.04961   +1.03937     -0.975600 
  39    0   39  6   0  0 0.015 01.1  0.00513   +1.02576   +1.01361     -1.184488 
  40    0   40  6   0  0 0.015 01.1  0.00509   +1.01763   +1.01196     -0.557177 
  41    0   41  6   0  0 0.015 01.1  0.00514   +1.02812   +1.02345     -0.454227 
  42    0   42  6   0  0 0.015 01.1  0.00504   +1.00840   +1.00534     -0.303451 
  43    0   43  6   0  0 0.015 01.1  0.00517   +1.03372   +1.02702     -0.648145 
  44    0   44  6   0  0 0.015 01.1  0.00526   +1.05141   +1.04554     -0.558298 
  45    0   45  6   0  0 0.015 01.1  0.00532   +1.06296   +1.06992     +0.654775 
  46    0   46  6   0  0 0.015 01.1  0.00544   +1.08842   +1.10294     +1.334044 
  47    0   47  6   0  0 0.015 01.1  0.00533   +1.06644   +1.05325     -1.236825 
  48    0   48  6   0  0 0.015 01.1  0.00531   +1.06136   +1.05434     -0.661416 
  49    0   49  6   0  0 0.015 01.1  0.00533   +1.06660   +1.06968     +0.288768 
  50    0   50  6   0  0 0.015 01.1  0.00526   +1.05188   +1.06224     +0.984903 
  51    0   51  6   0  0 0.015 01.1  0.00533   +1.06581   +1.07483     +0.846305 
  52    0   52  6   0  0 0.015 01.1  0.00505   +1.00978   +1.01151     +0.171324 
  53    0   53  6   0  0 0.015 01.1  0.00502   +1.00449   +0.99051     -1.391751 
  54    0   54  6   0  0 0.015 01.1  0.00512   +1.02450   +1.02970     +0.507565 
  55    0   55  6   0  0 0.015 01.1  0.00526   +1.05135   +1.06236     +1.047225 
  56    0   56  6   0  0 0.015 01.1  0.00506   +1.01262   +0.99942     -1.303549 
  57    0   57  6   0  0 0.015 01.1  0.00506   +1.01129   +1.00707     -0.417289 
  58    0    1  2   0  0 0.020 01.0  0.01062   -1.33281   -1.34822     +1.156204 
  59    0    2  2   0  0 0.020 01.0  0.00189   -0.02400   -0.02477     +3.208333 
  60    0    3  2   0  0 0.020 01.0  0.02891   +4.07600   +4.04236     -0.825319 
  61    0    4  2   0  0 0.020 01.0  0.00173   -0.00000   +0.00485     +0.000000 
  62    0    5  2   0  0 0.020 01.0  0.00242   -0.10300   -0.10837     +5.213592 
  63    0    6  2   0  0 0.020 01.0  0.00569   -0.59300   -0.60264     +1.625632 
  64    0    7  2   0  0 0.020 01.0  0.00173   +0.00000   +0.00409     +0.000000 
  65    0    8  2   0  0 0.020 01.0  0.01383   +1.81500   +1.82510     +0.556474 
  66    0    9  2   0  0 0.020 01.0  0.00415   -0.36300   -0.36554     +0.699725 
  67    0   10  2   0  0 0.020 01.0  0.00259   -0.12800   -0.13023     +1.742188 
  68    0   11  2   0  0 0.020 01.0  0.00173   +0.00000   +0.00152     +0.000000 
  69    0   12  2   0  0 0.020 01.0  0.00255   +0.12200   +0.12556     +2.918033 
  70    0   13  2   0  0 0.020 01.0  0.00268   -0.14200   -0.13827     -2.626761 
  71    0   14  2   0  0 0.020 01.0  0.00229   -0.08300   -0.07671     -7.578313 
  72    0   15  2   0  0 0.020 01.0  0.00289   -0.17400   -0.18188     +4.528736 
  73    0   16  2   0  0 0.020 01.0  0.00400   -0.34000   -0.34182     +0.535294 
  74    0   17  2   0  0 0.020 01.0  0.00395   -0.33200   -0.34363     +3.503012 
  75    0   18  2   0  0 0.020 01.0  0.00317   -0.21500   -0.21113     -1.800000 
  76    0   19  2   0  0 0.020 01.0  0.00191   -0.02600   -0.02279    -12.346154 
  77    0   20  2   0  0 0.020 01.0  0.00185   -0.01800   -0.01728     -4.000000 
  78    0   21  2   0  0 0.020 01.0  0.00173   -0.00000   -0.00496     +0.000000 
  79    0   22  2   0  0 0.020 01.0  0.00173   -0.00000   -0.00512     +0.000000 
  80    0   23  2   0  0 0.020 01.0  0.00207   -0.05000   -0.04394    -12.120000 
  81    0   24  2   0  0 0.020 01.0  0.00173   -0.00000   -0.00310     +0.000000 
  82    0   25  2   0  0 0.020 01.0  0.00207   -0.05000   -0.04599     -8.020000 
  83    0   26  2   0  0 0.020 01.0  0.00173   +0.00000   -0.00145     +0.000000 
  84    0   27  2   0  0 0.020 01.0  0.00222   -0.07300   -0.07352     +0.712329 
  85    0   28  2   0  0 0.020 01.0  0.00197   -0.03600   -0.04062    +12.833333 
  86    0   29  2   0  0 0.020 01.0  0.00263   -0.13400   -0.12957     -3.305970 
  87    0   30  2   0  0 0.020 01.0  0.00192   -0.02800   -0.02854     +1.928571 
  88    0   31  2   0  0 0.020 01.0  0.00204   -0.04600   -0.04848     +5.391304 
  89    0   32  2   0  0 0.020 01.0  0.00182   -0.01300   -0.01455    +11.923077 
  90    0   33  2   0  0 0.020 01.0  0.00193   -0.03000   -0.03020     +0.666667 
  91    0   34  2   0  0 0.020 01.0  0.00173   -0.00000   -0.00072     +0.000000 
  92    0   35  2   0  0 0.020 01.0  0.00205   -0.04700   -0.04456     -5.191489 
  93    0   36  2   0  0 0.020 01.0  0.00173   +0.00000   +0.00182     +0.000000 
  94    0   37  2   0  0 0.020 01.0  0.00173   +0.00000   -0.00513     +0.000000 
  95    0   38  2   0  0 0.020 01.0  0.00247   -0.11100   -0.11725     +5.630631 
  96    0   39  2   0  0 0.020 01.0  0.00173   +0.00000   -0.00041     +0.000000 
  97    0   40  2   0  0 0.020 01.0  0.00173   +0.00000   +0.00289     +0.000000 
  98    0   41  2   0  0 0.020 01.0  0.00207   -0.05000   -0.04607     -7.860000 
  99    0   42  2   0  0 0.020 01.0  0.00211   -0.05600   -0.05434     -2.964286 
 100    0   43  2   0  0 0.020 01.0  0.00184   -0.01600   -0.01749     +9.312500 
 101    0   44  2   0  0 0.020 01.0  0.00237   -0.09500   -0.08950     -5.789474 
 102    0   45  2   0  0 0.020 01.0  0.00173   +0.00000   -0.00259     +0.000000 
 103    0   46  2   0  0 0.020 01.0  0.00173   +0.00000   -0.00451     +0.000000 
 104    0   47  2   0  0 0.020 01.0  0.00330   -0.23500   -0.23050     -1.914894 
 105    0   48  2   0  0 0.020 01.0  0.00173   -0.00000   +0.00277     +0.000000 
 106    0   49  2   0  0 0.020 01.0  0.00268   -0.14200   -0.13559     -4.514085 
 107    0   50  2   0  0 0.020 01.0  0.00284   -0.16600   -0.16145     -2.740964 
 108    0   51  2   0  0 0.020 01.0  0.00268   -0.14200   -0.13481     -5.063380 
 109    0   52  2   0  0 0.020 01.0  0.00199   -0.03900   -0.03857     -1.102564 
 110    0   53  2   0  0 0.020 01.0  0.00279   -0.15800   -0.15031     -4.867089 
 111    0   54  2   0  0 0.020 01.0  0.00195   -0.03200   -0.02641    -17.468750 
 112    0   55  2   0  0 0.020 01.0  0.00209   -0.05400   -0.05372     -0.518519 
 113    0   56  2   0  0 0.020 01.0  0.00213   -0.06000   -0.05558     -7.366667 
 114    0   57  2   0  0 0.020 01.0  0.00209   -0.05300   -0.04802     -9.396226 
 115    0    1  5   0  0 0.020 01.0  0.01236   +1.59449   +1.62648     +2.006284 
 116    0    2  5   0  0 0.020 01.0  0.00750   -0.86500   -0.86691     +0.220809 
 117    0    3  5   0  0 0.020 01.0  0.00351   -0.26600   -0.26055     -2.048872 
 118    0    4  5   0  0 0.020 01.0  0.00173   -0.00000   +0.00456     +0.000000 
 119    0    5  5   0  0 0.020 01.0  0.00195   -0.03200   -0.02837    -11.343750 
 120    0    6  5   0  0 0.020 01.0  0.00237   -0.09600   -0.08987     -6.385417 
 121    0    7  5   0  0 0.020 01.0  0.00173   -0.00000   -0.00055     +0.000000 
 122    0    8  5   0  0 0.020 01.0  0.00223   -0.07433   -0.06986     -6.013723 
 123    0    9  5   0  0 0.020 01.0  0.00245   -0.10800   -0.10082     -6.648148 
 124    0   10  5   0  0 0.020 01.0  0.00207   -0.05100   -0.05262     +3.176471 
 125    0   11  5   0  0 0.020 01.0  0.00173   +0.00000   -0.00342     +0.000000 
 126    0   12  5   0  0 0.020 01.0  0.00383   +0.31433   +0.32176     +2.363758 
 127    0   13  5   0  0 0.020 01.0  0.00185   -0.01800   -0.01703     -5.388889 
 128    0   14  5   0  0 0.020 01.0  0.00201   -0.04200   -0.03642    -13.285714 
 129    0   15  5   0  0 0.020 01.0  0.00200   -0.04000   -0.04013     +0.325000 
 130    0   16  5   0  0 0.020 01.0  0.00189   -0.02400   -0.02680    +11.666667 
 131    0   17  5   0  0 0.020 01.0  0.00215   -0.06300   -0.06070     -3.650794 
 132    0   18  5   0  0 0.020 01.0  0.00225   -0.07700   -0.07141     -7.259740 
 133    0   19  5   0  0 0.020 01.0  0.00177   -0.00500   -0.00376    -24.800000 
 134    0   20  5   0  0 0.020 01.0  0.00179   -0.00800   -0.00990    +23.750000 
 135    0   21  5   0  0 0.020 01.0  0.00173   +0.00000   -0.00010     +0.000000 
 136    0   22  5   0  0 0.020 01.0  0.00173   +0.00000   -0.00096     +0.000000 
 137    0   23  5   0  0 0.020 01.0  0.00185   -0.01700   -0.02161    +27.117647 
 138    0   24  5   0  0 0.020 01.0  0.00173   -0.00000   +0.00096     +0.000000 
 139    0   25  5   0  0 0.020 01.0  0.00190   -0.02500   -0.02068    -17.280000 
 140    0   26  5   0  0 0.020 01.0  0.00173   +0.00000   +0.00055     +0.000000 
 141    0   27  5   0  0 0.020 01.0  0.00176   -0.00400   -0.00612    +53.000000 
 142    0   28  5   0  0 0.020 01.0  0.00185   -0.01800   -0.01359    -24.500000 
 143    0   29  5   0  0 0.020 01.0  0.00187   -0.02100   -0.01769    -15.761905 
 144    0   30  5   0  0 0.020 01.0  0.00183   -0.01400   -0.01098    -21.571429 
 145    0   31  5   0  0 0.020 01.0  0.00189   -0.02300   -0.02188     -4.869565 
 146    0   32  5   0  0 0.020 01.0  0.00177   -0.00600   -0.00539    -10.166667 
 147    0   33  5   0  0 0.020 01.0  0.00183   -0.01500   -0.01720    +14.666667 
 148    0   34  5   0  0 0.020 01.0  0.00173   -0.00000   +0.00050     +0.000000 
 149    0   35  5   0  0 0.020 01.0  0.00189   -0.02400   -0.01841    -23.291667 
 150    0   36  5   0  0 0.020 01.0  0.00173   -0.00000   -0.00017     +0.000000 
 151    0   37  5   0  0 0.020 01.0  0.00173   +0.00000   +0.00192     +0.000000 
 152    0   38  5   0  0 0.020 01.0  0.00210   -0.05500   -0.05525     +0.454545 
 153    0   39  5   0  0 0.020 01.0  0.00173   -0.00000   +0.00256     +0.000000 
 154    0   40  5   0  0 0.020 01.0  0.00173   -0.00000   -0.00300     +0.000000 
 155    0   41  5   0  0 0.020 01.0  0.00189   -0.02400   -0.02686    +11.916667 
 156    0   42  5   0  0 0.020 01.0  0.00197   -0.03500   -0.03975    +13.571429 
 157    0   43  5   0  0 0.020 01.0  0.00179   -0.00800   -0.00576    -28.000000 
 158    0   44  5   0  0 0.020 01.0  0.00183   -0.01400   -0.01010    -27.857143 
 159    0   45  5   0  0 0.020 01.0  0.00173   +0.00000   +0.00301     +0.000000 
 160    0   46  5   0  0 0.020 01.0  0.00173   +0.00000   +0.00253     +0.000000 
 161    0   47  5   0  0 0.020 01.0  0.00235   -0.09200   -0.09757     +6.054348 
 162    0   48  5   0  0 0.020 01.0  0.00173   -0.00000   +0.00022     +0.000000 
 163    0   49  5   0  0 0.020 01.0  0.00218   -0.06700   -0.06247     -6.761194 
 164    0   50  5   0  0 0.020 01.0  0.00229   -0.08300   -0.07829     -5.674699 
 165    0   51  5   0  0 0.020 01.0  0.00201   -0.04200   -0.04348     +3.523810 
 166    0   52  5   0  0 0.020 01.0  0.00185   -0.01700   -0.01953    +14.882353 
 167    0   53  5   0  0 0.020 01.0  0.00226   -0.07900   -0.08408     +6.430380 
 168    0   54  5   0  0 0.020 01.0  0.00181   -0.01100   -0.00893    -18.818182 
 169    0   55  5   0  0 0.020 01.0  0.00191   -0.02700   -0.02637     -2.333333 
 170    0   56  5   0  0 0.020 01.0  0.00185   -0.01700   -0.02245    +32.058824 
 171    0   57  5   0  0 0.020 01.0  0.00184   -0.01600   -0.01693     +5.812500 
 172    1    2  1   0  0 0.020 01.0  0.00959   -1.17902   -1.18253     +0.297705 
 173    2    3  1   0  0 0.020 01.0  0.00989   -1.22371   -1.20684     -1.378595 
 174    3    4  1   0  0 0.020 01.0  0.00764   +0.88657   +0.90170     +1.706577 
 175    4    5  1   0  0 0.020 01.0  0.00353   +0.27013   +0.27203     +0.703365 
 176    4    6  1   0  0 0.020 01.0  0.00390   +0.32466   +0.31629     -2.578082 
 177    6    7  1   0  0 0.020 01.0  0.00203   +0.04456   +0.04570     +2.558348 
 178    6    8  1   0  0 0.020 01.0  0.00277   -0.15550   -0.15174     -2.418006 
 179    8    9  1   0  0 0.020 01.0  0.00983   +1.21529   +1.21107     -0.347242 
 180    9   10  1   0  0 0.020 01.0  0.00344   +0.25636   +0.25038     -2.332657 
 181    9   11  1   0  0 0.020 01.0  0.00307   +0.20115   +0.19682     -2.152622 
 182    9   12  1   0  0 0.020 01.0  0.00248   +0.11214   +0.11948     +6.545390 
 183    9   13  1   0  0 0.020 01.0  0.00252   +0.11812   +0.11783     -0.245513 
 184   13   14  1   0  0 0.020 01.0  0.00225   -0.07732   -0.07290     -5.716503 
 185   13   15  1   0  0 0.020 01.0  0.00424   -0.37630   -0.37367     -0.698910 
 186    1   15  1   0  0 0.020 01.0  0.00501   -0.49178   -0.48222     -1.943959 
 187    1   16  1   0  0 0.020 01.0  0.00249   +0.11315   +0.11995     +6.009722 
 188    1   17  1   0  0 0.020 01.0  0.00323   +0.22485   +0.22776     +1.294196 
 189    3   15  1   0  0 0.020 01.0  0.01453   +1.91989   +1.93102     +0.579721 
 190    4   18  1   0  0 0.020 01.0  0.00256   +0.12434   +0.12659     +1.809554 
 191    4   18  1   0  0 0.020 01.0  0.00279   +0.15917   +0.15183     -4.611422 
 192    5    6  1   0  0 0.020 01.0  0.00282   +0.16275   +0.17016     +4.552995 
 193    7    8  1   0  0 0.020 01.0  0.00467   -0.44068   -0.42950     -2.536988 
 194   10   12  1   0  0 0.020 01.0  0.00230   -0.08499   -0.08230     -3.165078 
 195   11   13  1   0  0 0.020 01.0  0.00187   +0.02098   +0.01885    -10.152526 
 196   12   13  1   0  0 0.020 01.0  0.00300   -0.19077   -0.19359     +1.478220 
 197   12   16  1   0  0 0.020 01.0  0.00326   +0.22875   +0.22047     -3.619672 
 198   12   17  1   0  0 0.020 01.0  0.00246   +0.10918   +0.10948     +0.274776 
 199   14   15  1   0  0 0.020 01.0  0.00530   -0.53430   -0.53085     -0.645705 
...
Número de medidores SCADA:     491
Número de PMUs:                0
Número de medidas das PMUs:    0
----------------------------------------------------------------------------------

Não há medidas de ângulo.
Não há medidores desabilitados.
============================== Estado Estimado ===================================
                 Barra     Mod(pu)    Ang(graus)              
----------------------------------------------------------------------------------
                    1            1.0402              0.00        
                    2            1.0193              2.31        
                    3            1.0348              8.46        
                    4            1.0234              6.77        
                    5            1.0047              4.82        
                    6            1.0000              4.23        
                    7            0.9976              4.00        
                    8            1.0051              5.77        
                    9            0.9969              2.25        
                   10            0.9952             -0.31        
                   11            0.9937              1.24        
                   12            1.0150              0.08        
                   13            0.9971              1.09        
                   14            0.9936              1.36        
                   15            1.0122              2.86        
                   16            1.0185             -1.04        
                   17            1.0237             -1.19        
                   18            1.0507              3.40        
                   19            1.0132              1.25        
                   20            0.9996              0.31        
                   21            1.0486             -0.85        
                   22            1.0477             -1.02        
                   23            1.0466             -1.05        
                   24            1.0402             -1.14        
                   25            1.0391             -4.72        
                   26            0.9966             -0.86        
                   27            1.0097              0.73        
                   28            1.0196              1.66        
                   29            1.0290              2.31        
                   30            1.0238             -5.10        
                   31            1.0029             -5.54        
                   32            1.0108             -4.94        
                   33            1.0091             -4.96        
                   34            1.0090             -1.94        
                   35            1.0138             -1.75        
                   36            1.0206             -1.55        
                   37            1.0274             -1.44        
                   38            1.0494             -0.99        
                   39            1.0256             -1.46        
                   40            1.0178             -1.55        
                   41            1.0273             -1.61        
                   42            1.0062             -2.77        
                   43            1.0336              0.37        
                   44            1.0513             -0.39        
                   45            1.0630              1.43        
                   46            1.0883              0.05        
                   47            1.0661             -0.92        
                   48            1.0611             -0.96        
                   49            1.0666             -1.25        
                   50            1.0520             -1.64        
                   51            1.0654             -1.04        
                   52            1.0094              0.88        
                   53            1.0043              0.25        
                   54            1.0246              0.65        
                   55            1.0514              1.32        
                   56            1.0111             -3.28        
                   57            1.0101             -3.69        
----------------------------------------------------------------------------------
Convergiu em:    2 iteraçoes. 
----------------------------------------------------------------------------------
--- RESIDUOS NORMALIZADOS --------------------------------------------------------
   N    D    P  TP      Real     Medido   Estimado      Med-Est        rn 
----------------------------------------------------------------------------------
 190    4   18  1    +0.1243    +0.1266    +0.1502  -2.3566e-02      0.497 
 350   18    4  1    -0.1243    -0.1272    -0.1502  +2.2946e-02      0.484 
 430   18    4  4    +0.0001    -0.0026    +0.0150  -1.7536e-02      0.450 
 132    0   18  5    -0.0770    -0.0714    -0.0868  +1.5362e-02      0.416 
 174    3    4  1    +0.8866    +0.9017    +0.8767  +2.5018e-02      0.323 
 351   18    4  1    -0.1592    -0.1656    -0.1502  -1.5424e-02      0.310 
 270    4   18  4    +0.0077    +0.0057    -0.0061  +1.1866e-02      0.299 
  59    0    2  2    -0.0240    -0.0248    -0.0191  -5.6859e-03      0.279 
  75    0   18  2    -0.2150    -0.2111    -0.2002  -1.0915e-02      0.255 
 336    6    4  1    -0.3201    -0.3085    -0.3233  +1.4743e-02      0.247 
 359   15   14  1    +0.5397    +0.5530    +0.5360  +1.6992e-02      0.245 
 339    9    8  1    -1.2008    -1.1767    -1.1976  +2.0928e-02      0.235 
  61    0    4  2    -0.0000    +0.0049    +0.0007  +4.1571e-03      0.226 
 346   15    1  1    +0.4988    +0.5139    +0.4993  +1.4641e-02      0.221 
  32    0   32  6    +1.0118    +1.0258    +1.0108  +1.4945e-02      0.218 
 116    0    2  5    -0.8650    -0.8669    -0.8816  +1.4710e-02      0.216 
   2    0    2  6    +1.0194    +1.0345    +1.0193  +1.5236e-02      0.215 
 310   14   46  4    +0.2379    +0.2290    +0.2401  -1.1085e-02      0.211 
  27    0   27  6    +1.0097    +1.0246    +1.0097  +1.4831e-02      0.211 
  29    0   29  6    +1.0289    +1.0438    +1.0290  +1.4751e-02      0.207 
  22    0   22  6    +1.0479    +1.0328    +1.0477  -1.4874e-02      0.207 
  58    0    1  2    -1.3328    -1.3482    -1.3315  -1.6687e-02      0.206 
 426   15    1  4    -0.4435    -0.4316    -0.4449  +1.3340e-02      0.205 
   6    0    6  6    +1.0000    +0.9859    +1.0000  -1.4126e-02      0.201 
  46    0   46  6    +1.0884    +1.1029    +1.0883  +1.4631e-02      0.200 
 403   45   44  1    +0.2714    +0.2811    +0.2700  +1.1114e-02      0.198 
  53    0   53  6    +1.0045    +0.9905    +1.0043  -1.3756e-02      0.197 
   8    0    8  6    +1.0050    +1.0188    +1.0051  +1.3777e-02      0.196 
 176    4    6  1    +0.3247    +0.3163    +0.3279  -1.1637e-02      0.195 
 131    0   17  5    -0.0630    -0.0607    -0.0671  +6.3998e-03      0.192 
 276   12   13  4    +0.3442    +0.3555    +0.3444  +1.1163e-02      0.191 
 387   43   41  1    +0.0910    +0.0979    +0.0893  +8.5593e-03      0.191 
  34    0   34  6    +1.0087    +1.0223    +1.0090  +1.3283e-02      0.189 
 332    2    1  1    +1.1997    +1.2194    +1.2020  +1.7386e-02      0.189 
  30    0   30  6    +1.0245    +1.0108    +1.0238  -1.2981e-02      0.188 
 307   41   43  4    -0.0124    -0.0070    -0.0143  +7.2500e-03      0.185 
  47    0   47  6    +1.0664    +1.0533    +1.0661  -1.2899e-02      0.178 
 364   23   22  1    -0.0632    -0.0696    -0.0626  -7.0160e-03      0.178 
 201   19   20  1    +0.0405    +0.0345    +0.0417  -7.1776e-03      0.177 
 192    5    6  1    +0.1628    +0.1702    +0.1619  +8.3026e-03      0.176 
 266    1   15  4    +0.3753    +0.3873    +0.3768  +1.0465e-02      0.172 
  35    0   35  6    +1.0136    +1.0258    +1.0138  +1.1981e-02      0.170 
  39    0   39  6    +1.0258    +1.0136    +1.0256  -1.2038e-02      0.170 
 110    0   53  2    -0.1580    -0.1503    -0.1574  +7.1372e-03      0.168 
 478   52   29  4    +0.0036    +0.0079    +0.0018  +6.1326e-03      0.168 
 224   22   38  1    -0.0412    -0.0355    -0.0417  +6.1613e-03      0.168 
  56    0   56  6    +1.0126    +0.9994    +1.0111  -1.1649e-02      0.167 
 113    0   56  2    -0.0600    -0.0556    -0.0608  +5.2406e-03      0.167 
 154    0   40  5    -0.0000    -0.0030    +0.0025  -5.5384e-03      0.166 
  72    0   15  2    -0.1740    -0.1819    -0.1778  -4.0304e-03      0.164 
 120    0    6  5    -0.0960    -0.0899    -0.0953  +5.4630e-03      0.163 
 206   24   25  1    +0.0566    +0.0620    +0.0549  +7.1287e-03      0.162 
 473   49   48  4    +0.0477    +0.0421    +0.0490  -6.8972e-03      0.161 
 187    1   16  1    +0.1132    +0.1200    +0.1124  +7.5805e-03      0.161 
  23    0   23  6    +1.0469    +1.0351    +1.0466  -1.1534e-02      0.161 
 238   29   52  1    +0.1392    +0.1471    +0.1399  +7.2806e-03      0.159 
 354   12   10  1    +0.0857    +0.0918    +0.0848  +6.9510e-03      0.159 
  82    0   25  2    -0.0500    -0.0460    -0.0512  +5.1664e-03      0.158 
 149    0   35  5    -0.0240    -0.0184    -0.0236  +5.1574e-03      0.157 
 182    9   12  1    +0.1121    +0.1195    +0.1118  +7.6865e-03      0.156 
 328   57   56  4    +0.0098    +0.0046    +0.0103  -5.7920e-03      0.156 
  21    0   21  6    +1.0490    +1.0374    +1.0486  -1.1180e-02      0.156 
 409   49   38  1    +0.0262    +0.0208    +0.0273  -6.5398e-03      0.156 
 261    9   11  4    -0.0338    -0.0381    -0.0318  -6.3139e-03      0.156 
  65    0    8  2    +1.8150    +1.8251    +1.8098  +1.5331e-02      0.155 
 314   49   50  4    +0.0611    +0.0671    +0.0607  +6.3882e-03      0.154 
 485   41   56  4    -0.0131    -0.0185    -0.0121  -6.3699e-03      0.154 
   4    0    4  6    +1.0233    +1.0124    +1.0234  -1.0931e-02      0.154 
   1    0    1  6    +1.0400    +1.0512    +1.0402  +1.0999e-02      0.154 
 437   16   12  4    +0.0851    +0.0918    +0.0853  +6.5382e-03      0.153 
  55    0   55  6    +1.0514    +1.0624    +1.0514  +1.0985e-02      0.153 
 186    1   15  1    -0.4918    -0.4822    -0.4923  +1.0037e-02      0.152 
 128    0   14  5    -0.0420    -0.0364    -0.0406  +4.2215e-03      0.150 
 173    2    3  1    -1.2237    -1.2068    -1.2211  +1.4238e-02      0.150 
  84    0   27  2    -0.0730    -0.0735    -0.0683  -5.2432e-03      0.148 
 333    3    2  1    +1.2695    +1.2525    +1.2667  -1.4212e-02      0.148 
 197   12   16  1    +0.2288    +0.2205    +0.2278  -7.3039e-03      0.145 
 274   10   12  4    -0.1519    -0.1468    -0.1539  +7.0833e-03      0.144 
 445   24   23  4    -0.0211    -0.0256    -0.0200  -5.6379e-03      0.143 
  50    0   50  6    +1.0519    +1.0622    +1.0520  +1.0274e-02      0.143 
 349   15    3  1    -1.8641    -1.8445    -1.8606  +1.6041e-02      0.143 
  15    0   15  6    +1.0122    +1.0223    +1.0122  +1.0102e-02      0.143 
  69    0   12  2    +0.1220    +0.1256    +0.1213  +4.2517e-03      0.143 
 471   47   46  4    -0.2188    -0.2161    -0.2235  +7.3862e-03      0.143 
 376   33   32  1    -0.0300    -0.0350    -0.0297  -5.3067e-03      0.142 
 155    0   41  5    -0.0240    -0.0269    -0.0228  -4.0981e-03      0.141 
  38    0   38  6    +1.0496    +1.0394    +1.0494  -1.0024e-02      0.140 
 329   38   49  4    -0.0858    -0.0927    -0.0862  -6.4794e-03      0.139 
 193    7    8  1    -0.4407    -0.4295    -0.4382  +8.6735e-03      0.139 
 115    0    1  5    +1.5945    +1.6265    +1.6140  +1.2495e-02      0.139 
  11    0   11  6    +0.9938    +0.9841    +0.9937  -9.6476e-03      0.138 
 229   15   45  1    +0.2714    +0.2618    +0.2693  -7.5074e-03      0.137 
 469   45   15  4    +0.0351    +0.0297    +0.0351  -5.3652e-03      0.136 
  16    0   16  6    +1.0185    +1.0281    +1.0185  +9.6252e-03      0.136 
  36    0   36  6    +1.0205    +1.0111    +1.0206  -9.4613e-03      0.134 
 436   13   12  4    -0.3953    -0.3872    -0.3955  +8.2357e-03      0.134 
 170    0   56  5    -0.0170    -0.0225    -0.0187  -3.7918e-03      0.133 
 189    3   15  1    +1.9199    +1.9310    +1.9162  +1.4849e-02      0.132 
  51    0   51  6    +1.0658    +1.0748    +1.0654  +9.4281e-03      0.130 
 490   48   38  4    +0.1789    +0.1706    +0.1769  -6.2738e-03      0.130 
 454   31   30  4    -0.0215    -0.0172    -0.0222  +5.0133e-03      0.130 
 353    8    7  1    +0.4434    +0.4488    +0.4409  +7.9728e-03      0.128 
 257    6    7  4    +0.0015    -0.0031    +0.0018  -4.8151e-03      0.126 
 217   34   32  1    +0.0573    +0.0521    +0.0573  -5.2141e-03      0.125 
 250   38   48  1    -0.1221    -0.1182    -0.1237  +5.5476e-03      0.125 
 102    0   45  2    +0.0000    -0.0026    +0.0007  -3.2687e-03      0.125 
 343   13    9  1    -0.1174    -0.1220    -0.1160  -6.0423e-03      0.124 
 400   54   53  1    +0.0622    +0.0577    +0.0629  -5.2089e-03      0.124 
 136    0   22  5    +0.0000    -0.0010    +0.0025  -3.4420e-03      0.123 
 237   13   49  1    +0.2561    +0.2464    +0.2533  -6.9511e-03      0.123 
 228   38   44  1    -0.1714    -0.1656    -0.1714  +5.7853e-03      0.123 
 163    0   49  5    -0.0670    -0.0625    -0.0660  +3.5707e-03      0.122 
 184   13   14  1    -0.0773    -0.0729    -0.0781  +5.1862e-03      0.122 
 463   40   36  4    -0.0445    -0.0389    -0.0436  +4.7103e-03      0.122 
 352    6    5  1    -0.1620    -0.1554    -0.1611  +5.6835e-03      0.120 
 395   51   50  1    +0.0688    +0.0727    +0.0675  +5.2193e-03      0.120 
 455   32   31  4    +0.0016    +0.0054    +0.0008  +4.5426e-03      0.119 
 319   52   53  4    -0.0206    -0.0255    -0.0210  -4.5044e-03      0.119 
 488   56   57  4    -0.0097    -0.0146    -0.0102  -4.4359e-03      0.119 
 412    2    1  4    -1.1403    -1.1633    -1.1530  -1.0341e-02      0.119 
 370   28   27  1    +0.1742    +0.1662    +0.1719  -5.7009e-03      0.119 
 207   24   25  1    +0.0544    +0.0601    +0.0549  +5.2087e-03      0.119 
 167    0   53  5    -0.0790    -0.0841    -0.0796  -4.5073e-03      0.118 
 362   20   21  1    +0.0220    +0.0215    +0.0262  -4.6449e-03      0.118 
 447   25   24  4    +0.0008    -0.0039    +0.0008  -4.7174e-03      0.118 
 262    9   12  4    -0.1218    -0.1156    -0.1215  +5.8533e-03      0.117 
 101    0   44  2    -0.0950    -0.0895    -0.0936  +4.1334e-03      0.116 
 111    0   54  2    -0.0320    -0.0264    -0.0301  +3.7397e-03      0.116 
  60    0    3  2    +4.0760    +4.0424    +4.0595  -1.7165e-02      0.116 
 365   24   23  1    -0.0131    -0.0119    -0.0162  +4.3704e-03      0.115 
  24    0   24  6    +1.0407    +1.0321    +1.0402  -8.1792e-03      0.115 
 435   13   11  4    +0.0418    +0.0381    +0.0427  -4.6098e-03      0.114 
 425   15   13  4    +0.0520    +0.0578    +0.0528  +4.9889e-03      0.114 
 212    7   29  1    +0.4852    +0.4911    +0.4840  +7.1691e-03      0.114 
 267    1   16  4    +0.0551    +0.0510    +0.0559  -4.9260e-03      0.113 
 144    0   30  5    -0.0140    -0.0110    -0.0146  +3.6487e-03      0.113 
 126    0   12  5    +0.3143    +0.3218    +0.3171  +4.6571e-03      0.113 
   3    0    3  6    +1.0347    +1.0428    +1.0348  +8.0258e-03      0.112 
 303   36   40  4    +0.0447    +0.0393    +0.0437  -4.3361e-03      0.112 
 344   14   13  1    +0.0775    +0.0830    +0.0783  +4.7209e-03      0.111 
  94    0   37  2    +0.0000    -0.0051    -0.0023  -2.8608e-03      0.110 
  19    0   19  6    +1.0155    +1.0208    +1.0132  +7.5864e-03      0.109 
 295   31   32  4    -0.0015    +0.0035    -0.0007  +4.1553e-03      0.109 
 226   41   42  1    +0.0705    +0.0760    +0.0713  +4.6860e-03      0.109 
 246   56   42  1    -0.0134    -0.0168    -0.0126  -4.2200e-03      0.109 
 216   32   33  1    +0.0300    +0.0257    +0.0297  -3.9994e-03      0.107 
 482   43   11  4    -0.0237    -0.0281    -0.0240  -4.0418e-03      0.107 
 453   30   25  4    -0.0362    -0.0416    -0.0375  -4.0857e-03      0.106 
 304   22   38  4    -0.0337    -0.0301    -0.0340  +3.8369e-03      0.105 
 223   36   40  1    +0.0275    +0.0300    +0.0261  +3.9233e-03      0.105 
  10    0   10  6    +0.9954    +1.0025    +0.9952  +7.3247e-03      0.105 
 312   47   48  4    +0.1268    +0.1300    +0.1254  +4.5906e-03      0.104 
 390   46   14  1    -0.3738    -0.3795    -0.3733  -6.1517e-03      0.103 
  37    0   37  6    +1.0275    +1.0347    +1.0274  +7.2792e-03      0.103 
 439   15   14  4    +0.1739    +0.1800    +0.1749  +5.1561e-03      0.103 
 405   41   56  1    +0.0426    +0.0474    +0.0429  +4.4387e-03      0.102 
 413    3    2  4    -0.2308    -0.2223    -0.2276  +5.2825e-03      0.102 
 458   35   34  4    +0.0232    +0.0177    +0.0215  -3.7670e-03      0.102 
 322   11   43  4    +0.0254    +0.0219    +0.0257  -3.8380e-03      0.101 
 142    0   28  5    -0.0180    -0.0136    -0.0169  +3.3117e-03      0.101 
 280   18   19  4    +0.0126    +0.0094    +0.0133  -3.9577e-03      0.101 
 298   34   35  4    -0.0262    -0.0207    -0.0245  +3.7574e-03      0.100 
 380   37   36  1    +0.1333    +0.1323    +0.1279  +4.3642e-03      0.100 
 200   18   19  1    +0.0685    +0.0715    +0.0672  +4.2615e-03      0.099 
 357   16   12  1    -0.2277    -0.2217    -0.2267  +4.9803e-03      0.099 
 123    0    9  5    -0.1080    -0.1008    -0.1038  +2.9543e-03      0.098 
  79    0   22  2    -0.0000    -0.0051    -0.0024  -2.6781e-03      0.098 
 326   56   42  4    +0.0202    +0.0253    +0.0215  +3.8662e-03      0.098 
 450   28   27  4    -0.0061    -0.0085    -0.0049  -3.5706e-03      0.097 
   9    0    9  6    +0.9969    +1.0037    +0.9969  +6.8012e-03      0.097 
 177    6    7  1    +0.0446    +0.0457    +0.0418  +3.8520e-03      0.096 
  45    0   45  6    +1.0630    +1.0699    +1.0630  +6.9266e-03      0.096 
 293   25   30  4    +0.0372    +0.0348    +0.0385  -3.6850e-03      0.095 
 247   39   57  1    +0.0307    +0.0343    +0.0303  +4.0715e-03      0.095 
  88    0   31  2    -0.0460    -0.0485    -0.0452  -3.3133e-03      0.095 
  28    0   28  6    +1.0196    +1.0262    +1.0196  +6.6420e-03      0.094 
  48    0   48  6    +1.0614    +1.0543    +1.0611  -6.7667e-03      0.094 
 256    4    6  4    +0.0550    +0.0507    +0.0547  -4.0754e-03      0.093 
 263    9   13  4    -0.0560    -0.0595    -0.0553  -4.1657e-03      0.093 
 460   37   36  4    +0.0918    +0.0948    +0.0910  +3.8008e-03      0.093 
  43    0   43  6    +1.0337    +1.0270    +1.0336  -6.5882e-03      0.093 
 384   38   22  1    +0.0413    +0.0451    +0.0417  +3.3982e-03      0.093 
 360   19   18  1    -0.0665    -0.0693    -0.0653  -3.9837e-03      0.092 
 424   14   13  4    -0.1084    -0.1122    -0.1081  -4.1410e-03      0.091 
 127    0   13  5    -0.0180    -0.0170    -0.0190  +1.9690e-03      0.091 
 139    0   25  5    -0.0250    -0.0207    -0.0236  +2.9482e-03      0.091 
 467   43   41  4    +0.0157    +0.0139    +0.0175  -3.5856e-03      0.091 
 325   56   41  4    +0.0141    +0.0094    +0.0131  -3.7444e-03      0.090 
 416    6    4  4    -0.0750    -0.0785    -0.0744  -4.0816e-03      0.090 
  99    0   42  2    -0.0560    -0.0543    -0.0574  +3.1099e-03      0.089 
 465   41   11  4    -0.0153    -0.0201    -0.0164  -3.6995e-03      0.089 
 227   41   43  1    -0.0910    -0.0854    -0.0893  +3.9607e-03      0.088 
 423   13    9  4    +0.0180    +0.0210    +0.0174  +3.6695e-03      0.088 
 242   11   43  1    +0.1070    +0.1104    +0.1066  +3.8196e-03      0.087 
 475   51   50  4    +0.0244    +0.0193    +0.0228  -3.5193e-03      0.087 
 283   21   22  4    -0.0045    -0.0093    -0.0063  -3.0871e-03      0.087 
 158    0   44  5    -0.0140    -0.0101    -0.0128  +2.7283e-03      0.087 
 294   30   31  4    +0.0222    +0.0262    +0.0229  +3.3343e-03      0.087 
 459   36   35  4    +0.0463    +0.0474    +0.0441  +3.2934e-03      0.086 
...
Não foram identificados erros grosseiros.
Não foram identificadas medidas críticas.
Possíveis conjuntos críticos:
Conjunto 1: 316 243
Conjunto 2: 243 415
Conjunto 3: 117 338
Conjunto 4: 98 466
Conjunto 5: 179 202 196
Conjunto 6: 202 196
Conjunto 7: 379 313 394
Conjunto 8: 313 394
Conjunto 9: 244 464
Conjunto 10: 42 476
Conjunto 11: 388 272
Conjunto 12: 18 449
Conjunto 13: 449 147
Conjunto 14: 273 25
Conjunto 15: 320 419 172
Conjunto 16: 419 172
Conjunto 17: 282 368
Conjunto 18: 14 221 331 408
Conjunto 19: 221 331 408 234
Conjunto 20: 331 408 234 289
Conjunto 21: 408 234 289
Conjunto 22: 234 289 104
Conjunto 23: 289 104
Conjunto 24: 271 383
Conjunto 25: 252 91
Conjunto 26: 171 169 222
Conjunto 27: 169 222
Conjunto 28: 479 103
Conjunto 29: 103 275 428
Conjunto 30: 275 428
Conjunto 31: 143 210 26
Conjunto 32: 210 26
Conjunto 33: 26 432
Conjunto 34: 432 358
Conjunto 35: 249 277 355 183 301
Conjunto 36: 277 355 183 301
Conjunto 37: 355 183 301
Conjunto 38: 183 301
Conjunto 39: 301 87
Conjunto 40: 87 62
Conjunto 41: 420 348 85 414
Conjunto 42: 348 85 414
Conjunto 43: 85 414
Conjunto 44: 315 480
Conjunto 45: 480 157
Conjunto 46: 76 391
Conjunto 47: 444 340
Conjunto 48: 340 86
Conjunto 49: 81 335
Conjunto 50: 145 95
Conjunto 51: 442 260 204
Conjunto 52: 260 204 259
Conjunto 53: 204 259
Conjunto 54: 83 13
Conjunto 55: 13 264
Conjunto 56: 264 181 188
Conjunto 57: 181 188
Conjunto 58: 175 215 191
Conjunto 59: 215 191
Conjunto 60: 302 285 327
Conjunto 61: 285 327
Conjunto 62: 327 245 392
Conjunto 63: 245 392
Conjunto 64: 392 251
Conjunto 65: 345 371 296
Conjunto 66: 371 296
Conjunto 67: 258 385 108
Conjunto 68: 385 108
Conjunto 69: 108 407
Conjunto 70: 363 118
Conjunto 71: 386 484 309
Conjunto 72: 484 309 389
Conjunto 73: 309 389
Conjunto 74: 389 194
Conjunto 75: 194 134
Conjunto 76: 134 168 418
Conjunto 77: 168 418
Conjunto 78: 49 254
Conjunto 79: 268 57
Conjunto 80: 57 141 112
Conjunto 81: 141 112
Conjunto 82: 112 241
Conjunto 83: 241 446
Conjunto 84: 446 489
Conjunto 85: 489 487 129
Conjunto 86: 487 129
Conjunto 87: 129 399
Conjunto 88: 138 205 135 218
Conjunto 89: 205 135 218
Conjunto 90: 135 218 97
Conjunto 91: 218 97 232 341 321
Conjunto 92: 97 232 341 321 398
Conjunto 93: 232 341 321 398
Conjunto 94: 341 321 398
Conjunto 95: 321 398
Conjunto 96: 456 417
Conjunto 97: 417 468 203
Conjunto 98: 468 203 440 397
Conjunto 99: 203 440 397
Conjunto 100: 440 397 427
Conjunto 101: 397 427
Conjunto 102: 427 159 107
Conjunto 103: 159 107
Conjunto 104: 41 208 334
Conjunto 105: 208 334
Conjunto 106: 209 347 220 121
Conjunto 107: 347 220 121
Conjunto 108: 220 121 133
Conjunto 109: 121 133
Conjunto 110: 422 70 457 377 195
Conjunto 111: 70 457 377 195 369
Conjunto 112: 457 377 195 369
Conjunto 113: 377 195 369
Conjunto 114: 195 369
Conjunto 115: 369 381 248 93
Conjunto 116: 381 248 93 367 462 318 288
Conjunto 117: 248 93 367 462 318 288
Conjunto 118: 93 367 462 318 288
Conjunto 119: 367 462 318 288 402
Conjunto 120: 462 318 288 402
Conjunto 121: 318 288 402
Conjunto 122: 288 402
Conjunto 123: 378 89 198 240 448
Conjunto 124: 89 198 240 448
Conjunto 125: 198 240 448
Conjunto 126: 240 448 406 213
Conjunto 127: 448 406 213
Conjunto 128: 406 213 278
Conjunto 129: 213 278 12
Conjunto 130: 278 12
Conjunto 131: 12 290
Conjunto 132: 290 429
Conjunto 133: 429 323
Conjunto 134: 323 486 140
Conjunto 135: 486 140
Conjunto 136: 140 253 308
Conjunto 137: 253 308 481 305 165
Conjunto 138: 308 481 305 165
Conjunto 139: 481 305 165 239
Conjunto 140: 305 165 239
Conjunto 141: 165 239
Conjunto 142: 337 286
Conjunto 143: 80 311 255 401
Conjunto 144: 311 255 401 211
Conjunto 145: 255 401 211
Conjunto 146: 401 211 130
Conjunto 147: 211 130
Conjunto 148: 356 443
Conjunto 149: 443 77
Conjunto 150: 77 31 63
Conjunto 151: 31 63 73 382 78
Conjunto 152: 63 73 382 78
Conjunto 153: 73 382 78 361 433
Conjunto 154: 382 78 361 433
Conjunto 155: 78 361 433
Conjunto 156: 361 433 125 54
Conjunto 157: 433 125 54
Conjunto 158: 125 54 17
Conjunto 159: 54 17
Conjunto 160: 105 410 5
Conjunto 161: 410 5
Conjunto 162: 5 109
Conjunto 163: 109 219 137
Conjunto 164: 219 137 483
Conjunto 165: 137 483
Conjunto 166: 483 324
Conjunto 167: 164 477 119 233 71 297 393
Conjunto 168: 477 119 233 71 297 393
Conjunto 169: 119 233 71 297 393 106
Conjunto 170: 233 71 297 393 106
Conjunto 171: 71 297 393 106
Conjunto 172: 297 393 106
Conjunto 173: 393 106
Conjunto 174: 235 67 375
Conjunto 175: 67 375 150
Conjunto 176: 375 150
Conjunto 177: 150 162 431
Conjunto 178: 162 431 44 151
Conjunto 179: 431 44 151
Conjunto 180: 44 151 20 474 438
Conjunto 181: 151 20 474 438
Conjunto 182: 20 474 438
Conjunto 183: 474 438 291
Conjunto 184: 438 291
Conjunto 185: 291 300 148 472 74 7
Conjunto 186: 300 148 472 74 7
Conjunto 187: 148 472 74 7
Conjunto 188: 472 74 7 40
Conjunto 189: 74 7 40
Conjunto 190: 7 40 180
Conjunto 191: 40 180 374 461
Conjunto 192: 180 374 461 114
Conjunto 193: 374 461 114 122
Conjunto 194: 461 114 122
Conjunto 195: 114 122
Conjunto 196: 122 279
Conjunto 197: 279 153 178
Conjunto 198: 153 178 330 281 33
Conjunto 199: 178 330 281 33 459 294 158 283
Conjunto 200: 330 281 33 459 294 158 283 475
...
